12

C -1.9620258808135986 0.5289997458457947 -0.04512088745832443
C -0.4706176817417145 0.7507873773574829 -0.015433124266564846
O 0.04169683903455734 1.8443328142166138 -0.002959619741886854
N 0.27490198612213135 -0.41036564111709595 0.0011620806762948632
C 1.6565576791763306 -0.43780890107154846 0.037528783082962036
N 2.264733076095581 -1.5447604656219482 0.05325482785701752
H -2.4603073596954346 1.4919613599777222 -0.11089974641799927
H -2.2439470291137695 -0.08888062834739685 -0.899725615978241
H -2.285890579223633 0.01661149226129055 0.8631309270858765
H -0.18443100154399872 -1.3071829080581665 -0.009580137208104134
H 2.1014046669006348 0.5567096471786499 0.049097880721092224
H 3.267925262451172 -1.4004037380218506 0.07954467833042145
