13

N -2.136063575744629 0.6701038479804993 -0.468538373708725
C -0.8628299832344055 0.1394498646259308 -0.20440693199634552
C -0.46997812390327454 -1.1649258136749268 -0.2936922311782837
N 0.8938084840774536 -1.2054985761642456 -0.024509934708476067
C 1.3283369541168213 0.042029138654470444 0.2380083054304123
O 2.6373445987701416 0.20695018768310547 0.5352626442909241
C 0.28329750895500183 0.9222993850708008 0.13749781250953674
H -2.8503212928771973 -0.04003078117966652 -0.5117177963256836
H -2.405430555343628 1.3768064975738525 0.19830720126628876
H -1.022623896598816 -2.0577046871185303 -0.5325180292129517
H 1.4731273651123047 -2.022570848464966 -0.0087952371686697
H 2.8071987628936768 1.14069664478302 0.6673721075057983
H 0.32413384318351746 1.992395281791687 0.2677304744720459
