13

N -2.194000005722046 0.5090000033378601 -0.1679999977350235
C -0.8899999856948853 0.3199999928474426 -0.2590000033378601
C -0.6880000233650208 -1.097000002861023 0.0020000000949949026
N 0.6880000233650208 -1.1349999904632568 0.45100000500679016
C 1.2350000143051147 0.06599999964237213 0.23600000143051147
O 2.5169999599456787 0.23100000619888306 0.574999988079071
C 0.3400000035762787 1.0080000162124634 -0.2619999945163727
H -2.6530001163482666 1.2940000295639038 -0.6140000224113464
H -2.0889999866485596 -0.7559999823570251 0.27399998903274536
H -0.8149999976158142 -1.684999942779541 -0.9120000004768372
H 1.2319999933242798 -1.9509999752044678 0.6589999794960022
H 2.7869999408721924 1.128999948501587 0.36800000071525574
H 0.531000018119812 2.065999984741211 -0.3499999940395355
