13

N -2.225578784942627 0.7143633365631104 -0.5969509482383728
C -1.0552219152450562 0.3321784436702728 -0.2797390818595886
C -0.77107173204422 -1.130710244178772 0.04546964541077614
N 0.6061261892318726 -1.122798204421997 0.5296216011047363
C 1.118752121925354 0.11989094316959381 0.2997347116470337
O 2.423510789871216 0.25816720724105835 0.545181393623352
C 0.20778393745422363 1.0284450054168701 -0.12764006853103638
H -2.2425270080566406 1.715036392211914 -0.7776549458503723
H -1.464590311050415 -1.503326177597046 0.7989411950111389
H -0.8746234774589539 -1.7370383739471436 -0.8576645255088806
H 1.2062528133392334 -1.9125750064849854 0.3622646927833557
H 2.6944124698638916 1.1543222665786743 0.33221250772476196
H 0.3767746090888977 2.0840444564819336 -0.27377617359161377
