9

C -1.3683139298 -0.0492553953 0.0686806419
C 0.3050054609 -0.0291313684 0.0133472789
N 0.1262557703 -1.0072531878 0.7086427587
O 2.6269387071 -0.3675442443 0.1935396652
N 2.3414614741 0.5837819115 -0.4709261416
N 0.9914282051 0.8648747359 -0.6356661966
H -1.5406935101 0.9349903276 0.4965509028
H -1.5802468473 -0.1284110138 -0.9944196205
H -1.9196803303 -0.8032587656 0.6216547112
