16

C 0.95607897 -0.5585155512 -0.7310188048
C 0.4553897037 -0.367344268 0.8436978644
C 1.1012215803 0.8317016676 1.2405500139
C 0.0664094337 0.3485274506 -1.3557512981
C -1.3038217262 0.2688102611 -0.7937719237
C -1.083527277 -0.421565955 0.5618184675
H 0.7452153474 -1.6311724396 -0.8315760284
H 2.0198525614 -0.3862522939 -0.8967186432
H 0.6896600204 -1.1942653169 1.5296052356
H 1.3753218652 1.5797758143 0.5098683184
H 1.3897573772 1.0038344757 2.2715093196
H 0.3597582423 1.0602493145 -2.1154478027
H -1.9690326392 -0.3573335106 -1.4048258058
H -1.779740689 1.2484645957 -0.7287117418
H -1.3831562389 -1.4734737646 0.5214177758
H -1.6415905314 0.0466245204 1.3742160537
