13

C 1.7139080617 0.9120146594 0.3188598535
O 0.4808577445 0.4869327698 0.8567232047
C -0.4277662432 -1.0705425474 -0.306291294
C -1.7714982659 -0.5865865474 -0.6074536203
O -1.3152390119 0.7121617541 -0.749750477
H 2.0207508492 1.8575973124 0.7744509037
H 2.4761690384 0.161874646 0.5388559245
H 1.6474027628 1.052213797 -0.7653614518
H 0.2796443159 -1.0752271408 -1.124411376
H -0.148203515 -1.5939849202 0.596957614
H -2.1918284143 -1.0167390613 -1.5287332196
H -2.4887202782 -0.7398898591 0.2104446561
H -0.284806044 0.8974741376 0.317150282
