14

C -1.340632438659668 -1.0372345447540283 0.3632384240627289
N -0.2655072510242462 -0.15205618739128113 -0.022561656311154366
C -0.5798770785331726 1.2461411952972412 -0.19163678586483002
C 1.004855751991272 -0.6505917310714722 -0.11786521971225739
O 1.2655982971191406 -1.836864709854126 -0.03665582835674286
N 1.9953296184539795 0.28503966331481934 -0.36538997292518616
H -0.937158465385437 -2.039062023162842 0.47971993684768677
H -1.7884293794631958 -0.716622531414032 1.3092679977416992
H -2.121176242828369 -1.0550957918167114 -0.4027750790119171
H 0.019635936245322227 1.686504602432251 -0.9888384342193604
H -1.626355767250061 1.3395096063613892 -0.48347482085227966
H -0.4404268264770508 1.8288004398345947 0.7282178401947021
H 2.9154820442199707 -0.11094018071889877 -0.2793715298175812
H 1.8986616134643555 1.2124723196029663 0.00812516175210476
