14

C -1.065999984741211 -0.9309999942779541 0.5099999904632568
N -0.09399999678134918 0.12300000339746475 0.24400000274181366
C -0.6679999828338623 1.2730000019073486 -0.44600000977516174
C 1.1510000228881836 -0.4169999957084656 -0.4830000102519989
O 1.1230000257492065 -0.8899999856948853 -1.5889999866485596
N 2.01200008392334 -0.15600000321865082 0.4830000102519989
H -0.5809999704360962 -1.7339999675750732 1.065000057220459
H -1.8899999856948853 -0.5320000052452087 1.1030000448226929
H -1.4550000429153442 -1.3339999914169312 -0.42899999022483826
H -1.0299999713897705 0.9769999980926514 -1.434000015258789
H -1.4930000305175781 1.680999994277954 0.1379999965429306
H 0.0989999994635582 2.0380001068115234 -0.5659999847412109
H 2.98799991607666 -0.3840000033378601 0.36500000953674316
H 0.902999997138977 0.2849999964237213 1.0369999408721924
