15

C -1.902 -0.961 -0.955
N -0.686 -0.402 -0.345
C 0.186 -1.178 0.422
C 1.127 -0.38 0.953
C 0.904 0.958 0.408
N 1.811 2.014 0.525
C -0.288 1.034 -0.28
H -2.038 -1.992 -0.658
H -1.878 -0.892 -2.036
H -2.744 -0.367 -0.589
H -0.031 -2.216 0.656
H 1.874 -0.657 1.699
H 2.376 1.971 1.339
H 1.48 2.858 0.184
H -0.19 0.21 -1.323
