15

C 2.305598258972168 0.254825234413147 0.0035427126567810774
N 0.9006443619728088 -0.060727331787347794 -0.0019020987674593925
C 0.36680740118026733 -1.2950462102890015 0.16557475924491882
C -1.0007319450378418 -1.1851601600646973 0.19300757348537445
C -1.3107837438583374 0.1896674633026123 0.034703828394412994
N -2.6025705337524414 0.7397881150245667 0.06074657663702965
C -0.11833583563566208 0.8617134690284729 -0.07912357896566391
H 2.8760886192321777 -0.6521386504173279 -0.19240358471870422
H 2.5323238372802734 0.9784063100814819 -0.7803082466125488
H 2.6213486194610596 0.6652485132217407 0.9658687710762024
H 0.9972599744796753 -2.166215419769287 0.2508049011230469
H -1.7031183242797852 -1.995879054069519 0.3104042708873749
H -3.29290771484375 0.11721086502075195 -0.3286364674568176
H -2.6602656841278076 1.6360650062561035 -0.39594995975494385
H 0.08864252269268036 1.9122416973114014 -0.20632947981357574
